!- Windows Line endings 

VERSION,
    8.8.0;                    !- Version Identifier

SIMULATIONCONTROL,
    No,                       !- Do Zone Sizing Calculation
    No,                       !- Do System Sizing Calculation
    No,                       !- Do Plant Sizing Calculation
    No,                       !- Run Simulation for Sizing Periods
    Yes,                      !- Run Simulation for Weather File Run Periods
    No,                       !- Do HVAC Sizing Simulation for Sizing Periods
    1;                        !- Maximum Number of HVAC Sizing Simulation Passes

BUILDING,
    IHOPETHISWORKS,           !- Name
    0.0,                      !- North Axis
    City,                     !- Terrain
    0.04,                     !- Loads Convergence Tolerance Value
    0.4,                      !- Temperature Convergence Tolerance Value
    FullInteriorAndExteriorWithReflections,    !- Solar Distribution
    25,                       !- Maximum Number of Warmup Days
    6;                        !- Minimum Number of Warmup Days

SHADOWCALCULATION,
    AverageOverDaysInFrequency,    !- Calculation Method
    20,                       !- Calculation Frequency
    15000,                    !- Maximum Figures in Shadow Overlap Calculations
    SutherlandHodgman,        !- Polygon Clipping Algorithm
    SimpleSkyDiffuseModeling,    !- Sky Diffuse Modeling Algorithm
    InternalCalculation,      !- External Shading Calculation Method
    Yes;                      !- Output External Shading Calculation Results

TIMESTEP,
    6;                        !- Number of Timesteps per Hour

SITE:LOCATION,
    CARDIFF,                  !- Name
    51.48,                    !- Latitude
    -3.34,                    !- Longitude
    0.0,                      !- Time Zone
    10.0;                     !- Elevation

RUNPERIOD,
    PARAMETRIC RUN,           !- Name
    1,                        !- Begin Month
    1,                        !- Begin Day of Month
    12,                       !- End Month
    31,                       !- End Day of Month
    Monday,                   !- Day of Week for Start Day
    Yes,                      !- Use Weather File Holidays and Special Days
    Yes,                      !- Use Weather File Daylight Saving Period
    No,                       !- Apply Weekend Holiday Rule
    Yes,                      !- Use Weather File Rain Indicators
    Yes,                      !- Use Weather File Snow Indicators
    1,                        !- Number of Times Runperiod to be Repeated
    Yes;                      !- Increment Day of Week on repeat

SITE:GROUNDTEMPERATURE:BUILDINGSURFACE,
    18.0,                     !- January Ground Temperature
    18.0,                     !- February Ground Temperature
    18.0,                     !- March Ground Temperature
    18.0,                     !- April Ground Temperature
    18.0,                     !- May Ground Temperature
    18.0,                     !- June Ground Temperature
    18.0,                     !- July Ground Temperature
    18.0,                     !- August Ground Temperature
    18.0,                     !- September Ground Temperature
    18.0,                     !- October Ground Temperature
    18.0,                     !- November Ground Temperature
    18.0;                     !- December Ground Temperature

SCHEDULETYPELIMITS,
    FractionLimits,           !- Name
    0,                        !- Lower Limit Value
    1,                        !- Upper Limit Value
    Continuous,               !- Numeric Type
    Dimensionless;            !- Unit Type

SCHEDULETYPELIMITS,
    OnOffLimits,              !- Name
    0,                        !- Lower Limit Value
    1,                        !- Upper Limit Value
    Discrete,                 !- Numeric Type
    Dimensionless;            !- Unit Type

SCHEDULETYPELIMITS,
    TemperatureSetpointLimits,    !- Name
    0,                        !- Lower Limit Value
    100,                      !- Upper Limit Value
    Continuous,               !- Numeric Type
    Dimensionless;            !- Unit Type

SCHEDULETYPELIMITS,
    ActivityLevelLimits,      !- Name
    0,                        !- Lower Limit Value
    1000,                     !- Upper Limit Value
    Continuous,               !- Numeric Type
    Dimensionless;            !- Unit Type

SCHEDULE:DAY:HOURLY,
    AlwaysOnDay,              !- Name
    OnOffLimits,              !- Schedule Type Limits Name
    1.0,                      !- Hour 1
    1.0,                      !- Hour 2
    1.0,                      !- Hour 3
    1.0,                      !- Hour 4
    1.0,                      !- Hour 5
    1.0,                      !- Hour 6
    1.0,                      !- Hour 7
    1.0,                      !- Hour 8
    1.0,                      !- Hour 9
    1.0,                      !- Hour 10
    1.0,                      !- Hour 11
    1.0,                      !- Hour 12
    1.0,                      !- Hour 13
    1.0,                      !- Hour 14
    1.0,                      !- Hour 15
    1.0,                      !- Hour 16
    1.0,                      !- Hour 17
    1.0,                      !- Hour 18
    1.0,                      !- Hour 19
    1.0,                      !- Hour 20
    1.0,                      !- Hour 21
    1.0,                      !- Hour 22
    1.0,                      !- Hour 23
    1.0;                      !- Hour 24

SCHEDULE:DAY:HOURLY,
    AlwaysOffDay,             !- Name
    OnOffLimits,              !- Schedule Type Limits Name
    0.0,                      !- Hour 1
    0.0,                      !- Hour 2
    0.0,                      !- Hour 3
    0.0,                      !- Hour 4
    0.0,                      !- Hour 5
    0.0,                      !- Hour 6
    0.0,                      !- Hour 7
    0.0,                      !- Hour 8
    0.0,                      !- Hour 9
    0.0,                      !- Hour 10
    0.0,                      !- Hour 11
    0.0,                      !- Hour 12
    0.0,                      !- Hour 13
    0.0,                      !- Hour 14
    0.0,                      !- Hour 15
    0.0,                      !- Hour 16
    0.0,                      !- Hour 17
    0.0,                      !- Hour 18
    0.0,                      !- Hour 19
    0.0,                      !- Hour 20
    0.0,                      !- Hour 21
    0.0,                      !- Hour 22
    0.0,                      !- Hour 23
    0.0;                      !- Hour 24

SCHEDULE:DAY:HOURLY,
    CoolingSetpointDayWeekday,    !- Name
    TemperatureSetpointLimits,    !- Schedule Type Limits Name
    100.0,                    !- Hour 1
    100.0,                    !- Hour 2
    100.0,                    !- Hour 3
    100.0,                    !- Hour 4
    100.0,                    !- Hour 5
    24.0,                     !- Hour 6
    24.0,                     !- Hour 7
    24.0,                     !- Hour 8
    24.0,                     !- Hour 9
    24.0,                     !- Hour 10
    24.0,                     !- Hour 11
    24.0,                     !- Hour 12
    24.0,                     !- Hour 13
    24.0,                     !- Hour 14
    24.0,                     !- Hour 15
    24.0,                     !- Hour 16
    24.0,                     !- Hour 17
    24.0,                     !- Hour 18
    100.0,                    !- Hour 19
    100.0,                    !- Hour 20
    100.0,                    !- Hour 21
    100.0,                    !- Hour 22
    100.0,                    !- Hour 23
    100.0;                    !- Hour 24

SCHEDULE:DAY:HOURLY,
    CoolingSetpointDayWeekend,    !- Name
    TemperatureSetpointLimits,    !- Schedule Type Limits Name
    100.0,                    !- Hour 1
    100.0,                    !- Hour 2
    100.0,                    !- Hour 3
    100.0,                    !- Hour 4
    100.0,                    !- Hour 5
    100.0,                    !- Hour 6
    100.0,                    !- Hour 7
    100.0,                    !- Hour 8
    100.0,                    !- Hour 9
    100.0,                    !- Hour 10
    100.0,                    !- Hour 11
    100.0,                    !- Hour 12
    100.0,                    !- Hour 13
    100.0,                    !- Hour 14
    100.0,                    !- Hour 15
    100.0,                    !- Hour 16
    100.0,                    !- Hour 17
    100.0,                    !- Hour 18
    100.0,                    !- Hour 19
    100.0,                    !- Hour 20
    100.0,                    !- Hour 21
    100.0,                    !- Hour 22
    100.0,                    !- Hour 23
    100.0;                    !- Hour 24

SCHEDULE:DAY:HOURLY,
    HeatingSetpointDayWeekday,    !- Name
    TemperatureSetpointLimits,    !- Schedule Type Limits Name
    16.0,                     !- Hour 1
    16.0,                     !- Hour 2
    16.0,                     !- Hour 3
    16.0,                     !- Hour 4
    16.0,                     !- Hour 5
    20.0,                     !- Hour 6
    20.0,                     !- Hour 7
    20.0,                     !- Hour 8
    20.0,                     !- Hour 9
    20.0,                     !- Hour 10
    20.0,                     !- Hour 11
    20.0,                     !- Hour 12
    20.0,                     !- Hour 13
    20.0,                     !- Hour 14
    20.0,                     !- Hour 15
    20.0,                     !- Hour 16
    20.0,                     !- Hour 17
    20.0,                     !- Hour 18
    16.0,                     !- Hour 19
    16.0,                     !- Hour 20
    16.0,                     !- Hour 21
    16.0,                     !- Hour 22
    16.0,                     !- Hour 23
    16.0;                     !- Hour 24

SCHEDULE:DAY:HOURLY,
    HeatingSetpointDayWeekend,    !- Name
    TemperatureSetpointLimits,    !- Schedule Type Limits Name
    16.0,                     !- Hour 1
    16.0,                     !- Hour 2
    16.0,                     !- Hour 3
    16.0,                     !- Hour 4
    16.0,                     !- Hour 5
    16.0,                     !- Hour 6
    16.0,                     !- Hour 7
    16.0,                     !- Hour 8
    16.0,                     !- Hour 9
    16.0,                     !- Hour 10
    16.0,                     !- Hour 11
    16.0,                     !- Hour 12
    16.0,                     !- Hour 13
    16.0,                     !- Hour 14
    16.0,                     !- Hour 15
    16.0,                     !- Hour 16
    16.0,                     !- Hour 17
    16.0,                     !- Hour 18
    16.0,                     !- Hour 19
    16.0,                     !- Hour 20
    16.0,                     !- Hour 21
    16.0,                     !- Hour 22
    16.0,                     !- Hour 23
    16.0;                     !- Hour 24

SCHEDULE:DAY:HOURLY,
    OccupantGainDayWeekday,    !- Name
    FractionLimits,           !- Schedule Type Limits Name
    0.0,                      !- Hour 1
    0.0,                      !- Hour 2
    0.0,                      !- Hour 3
    0.0,                      !- Hour 4
    0.0,                      !- Hour 5
    0.0,                      !- Hour 6
    0.25,                     !- Hour 7
    0.25,                     !- Hour 8
    1.0,                      !- Hour 9
    1.0,                      !- Hour 10
    1.0,                      !- Hour 11
    0.75,                     !- Hour 12
    0.75,                     !- Hour 13
    1.0,                      !- Hour 14
    1.0,                      !- Hour 15
    1.0,                      !- Hour 16
    0.5,                      !- Hour 17
    0.25,                     !- Hour 18
    0.0,                      !- Hour 19
    0.0,                      !- Hour 20
    0.0,                      !- Hour 21
    0.0,                      !- Hour 22
    0.0,                      !- Hour 23
    0.0;                      !- Hour 24

SCHEDULE:DAY:HOURLY,
    OccupantGainDayWeekend,    !- Name
    FractionLimits,           !- Schedule Type Limits Name
    0.0,                      !- Hour 1
    0.0,                      !- Hour 2
    0.0,                      !- Hour 3
    0.0,                      !- Hour 4
    0.0,                      !- Hour 5
    0.0,                      !- Hour 6
    0.0,                      !- Hour 7
    0.0,                      !- Hour 8
    0.0,                      !- Hour 9
    0.0,                      !- Hour 10
    0.0,                      !- Hour 11
    0.0,                      !- Hour 12
    0.0,                      !- Hour 13
    0.0,                      !- Hour 14
    0.0,                      !- Hour 15
    0.0,                      !- Hour 16
    0.0,                      !- Hour 17
    0.0,                      !- Hour 18
    0.0,                      !- Hour 19
    0.0,                      !- Hour 20
    0.0,                      !- Hour 21
    0.0,                      !- Hour 22
    0.0,                      !- Hour 23
    0.0;                      !- Hour 24

SCHEDULE:DAY:HOURLY,
    LightingGainDayWeekday,    !- Name
    FractionLimits,           !- Schedule Type Limits Name
    0.0,                      !- Hour 1
    0.0,                      !- Hour 2
    0.0,                      !- Hour 3
    0.0,                      !- Hour 4
    0.0,                      !- Hour 5
    0.0,                      !- Hour 6
    0.0,                      !- Hour 7
    1.0,                      !- Hour 8
    1.0,                      !- Hour 9
    1.0,                      !- Hour 10
    1.0,                      !- Hour 11
    1.0,                      !- Hour 12
    1.0,                      !- Hour 13
    1.0,                      !- Hour 14
    1.0,                      !- Hour 15
    1.0,                      !- Hour 16
    1.0,                      !- Hour 17
    1.0,                      !- Hour 18
    1.0,                      !- Hour 19
    0.0,                      !- Hour 20
    0.0,                      !- Hour 21
    0.0,                      !- Hour 22
    0.0,                      !- Hour 23
    0.0;                      !- Hour 24

SCHEDULE:DAY:HOURLY,
    LightingGainDayWeekend,    !- Name
    FractionLimits,           !- Schedule Type Limits Name
    0.0,                      !- Hour 1
    0.0,                      !- Hour 2
    0.0,                      !- Hour 3
    0.0,                      !- Hour 4
    0.0,                      !- Hour 5
    0.0,                      !- Hour 6
    0.0,                      !- Hour 7
    0.0,                      !- Hour 8
    0.0,                      !- Hour 9
    0.0,                      !- Hour 10
    0.0,                      !- Hour 11
    0.0,                      !- Hour 12
    0.0,                      !- Hour 13
    0.0,                      !- Hour 14
    0.0,                      !- Hour 15
    0.0,                      !- Hour 16
    0.0,                      !- Hour 17
    0.0,                      !- Hour 18
    0.0,                      !- Hour 19
    0.0,                      !- Hour 20
    0.0,                      !- Hour 21
    0.0,                      !- Hour 22
    0.0,                      !- Hour 23
    0.0;                      !- Hour 24

SCHEDULE:DAY:HOURLY,
    EquipmentGainDayWeekday,    !- Name
    FractionLimits,           !- Schedule Type Limits Name
    0.0,                      !- Hour 1
    0.0,                      !- Hour 2
    0.0,                      !- Hour 3
    0.0,                      !- Hour 4
    0.0,                      !- Hour 5
    0.0,                      !- Hour 6
    0.0,                      !- Hour 7
    1.0,                      !- Hour 8
    1.0,                      !- Hour 9
    1.0,                      !- Hour 10
    1.0,                      !- Hour 11
    1.0,                      !- Hour 12
    1.0,                      !- Hour 13
    1.0,                      !- Hour 14
    1.0,                      !- Hour 15
    1.0,                      !- Hour 16
    1.0,                      !- Hour 17
    1.0,                      !- Hour 18
    1.0,                      !- Hour 19
    1.0,                      !- Hour 20
    0.0,                      !- Hour 21
    0.0,                      !- Hour 22
    0.0,                      !- Hour 23
    0.0;                      !- Hour 24

SCHEDULE:DAY:HOURLY,
    EquipmentGainDayWeekend,    !- Name
    FractionLimits,           !- Schedule Type Limits Name
    0.0,                      !- Hour 1
    0.0,                      !- Hour 2
    0.0,                      !- Hour 3
    0.0,                      !- Hour 4
    0.0,                      !- Hour 5
    0.0,                      !- Hour 6
    0.0,                      !- Hour 7
    0.0,                      !- Hour 8
    0.0,                      !- Hour 9
    0.0,                      !- Hour 10
    0.0,                      !- Hour 11
    0.0,                      !- Hour 12
    0.0,                      !- Hour 13
    0.0,                      !- Hour 14
    0.0,                      !- Hour 15
    0.0,                      !- Hour 16
    0.0,                      !- Hour 17
    0.0,                      !- Hour 18
    0.0,                      !- Hour 19
    0.0,                      !- Hour 20
    0.0,                      !- Hour 21
    0.0,                      !- Hour 22
    0.0,                      !- Hour 23
    0.0;                      !- Hour 24

SCHEDULE:DAY:HOURLY,
    VentilationGainDayWeekday,    !- Name
    FractionLimits,           !- Schedule Type Limits Name
    0.0,                      !- Hour 1
    0.0,                      !- Hour 2
    0.0,                      !- Hour 3
    0.0,                      !- Hour 4
    0.0,                      !- Hour 5
    0.0,                      !- Hour 6
    0.0,                      !- Hour 7
    1.0,                      !- Hour 8
    1.0,                      !- Hour 9
    1.0,                      !- Hour 10
    1.0,                      !- Hour 11
    1.0,                      !- Hour 12
    1.0,                      !- Hour 13
    1.0,                      !- Hour 14
    1.0,                      !- Hour 15
    1.0,                      !- Hour 16
    1.0,                      !- Hour 17
    1.0,                      !- Hour 18
    1.0,                      !- Hour 19
    0.0,                      !- Hour 20
    0.0,                      !- Hour 21
    0.0,                      !- Hour 22
    0.0,                      !- Hour 23
    0.0;                      !- Hour 24

SCHEDULE:DAY:HOURLY,
    VentilationGainDayWeekend,    !- Name
    FractionLimits,           !- Schedule Type Limits Name
    0.0,                      !- Hour 1
    0.0,                      !- Hour 2
    0.0,                      !- Hour 3
    0.0,                      !- Hour 4
    0.0,                      !- Hour 5
    0.0,                      !- Hour 6
    0.0,                      !- Hour 7
    0.0,                      !- Hour 8
    0.0,                      !- Hour 9
    0.0,                      !- Hour 10
    0.0,                      !- Hour 11
    0.0,                      !- Hour 12
    0.0,                      !- Hour 13
    0.0,                      !- Hour 14
    0.0,                      !- Hour 15
    0.0,                      !- Hour 16
    0.0,                      !- Hour 17
    0.0,                      !- Hour 18
    0.0,                      !- Hour 19
    0.0,                      !- Hour 20
    0.0,                      !- Hour 21
    0.0,                      !- Hour 22
    0.0,                      !- Hour 23
    0.0;                      !- Hour 24

SCHEDULE:DAY:HOURLY,
    OccupantActivityLevelDay,    !- Name
    ActivityLevelLimits,      !- Schedule Type Limits Name
    75.0,                     !- Hour 1
    75.0,                     !- Hour 2
    75.0,                     !- Hour 3
    75.0,                     !- Hour 4
    75.0,                     !- Hour 5
    75.0,                     !- Hour 6
    75.0,                     !- Hour 7
    75.0,                     !- Hour 8
    75.0,                     !- Hour 9
    75.0,                     !- Hour 10
    75.0,                     !- Hour 11
    75.0,                     !- Hour 12
    75.0,                     !- Hour 13
    75.0,                     !- Hour 14
    75.0,                     !- Hour 15
    75.0,                     !- Hour 16
    75.0,                     !- Hour 17
    75.0,                     !- Hour 18
    75.0,                     !- Hour 19
    75.0,                     !- Hour 20
    75.0,                     !- Hour 21
    75.0,                     !- Hour 22
    75.0,                     !- Hour 23
    75.0;                     !- Hour 24

SCHEDULE:WEEK:COMPACT,
    OccupantGainWeek,         !- Name
    WeekDays,                 !- DayType List 1
    OccupantGainDayWeekday,    !- ScheduleDay Name 1
    AllOtherDays,             !- DayType List 2
    OccupantGainDayWeekend;    !- ScheduleDay Name 2

SCHEDULE:WEEK:COMPACT,
    LightingGainWeek,         !- Name
    WeekDays,                 !- DayType List 1
    LightingGainDayWeekday,    !- ScheduleDay Name 1
    AllOtherDays,             !- DayType List 2
    LightingGainDayWeekend;    !- ScheduleDay Name 2

SCHEDULE:WEEK:COMPACT,
    EquipmentGainWeek,        !- Name
    WeekDays,                 !- DayType List 1
    EquipmentGainDayWeekday,    !- ScheduleDay Name 1
    AllOtherDays,             !- DayType List 2
    EquipmentGainDayWeekend;    !- ScheduleDay Name 2

SCHEDULE:WEEK:COMPACT,
    OccupantActivityLevelWeek,    !- Name
    AllDays,                  !- DayType List 1
    OccupantActivityLevelDay;    !- ScheduleDay Name 1

SCHEDULE:WEEK:COMPACT,
    HeatingSetpointWeek,      !- Name
    WeekDays,                 !- DayType List 1
    HeatingSetpointDayWeekday,    !- ScheduleDay Name 1
    AllOtherDays,             !- DayType List 2
    HeatingSetpointDayWeekend;    !- ScheduleDay Name 2

SCHEDULE:WEEK:COMPACT,
    CoolingSetpointWeek,      !- Name
    WeekDays,                 !- DayType List 1
    CoolingSetpointDayWeekday,    !- ScheduleDay Name 1
    AllOtherDays,             !- DayType List 2
    CoolingSetpointDayWeekend;    !- ScheduleDay Name 2

SCHEDULE:WEEK:COMPACT,
    VentilationWeek,          !- Name
    Weekdays,                 !- DayType List 1
    VentilationGainDayWeekday,    !- ScheduleDay Name 1
    AllOtherDays,             !- DayType List 2
    VentilationGainDayWeekend;    !- ScheduleDay Name 2

SCHEDULE:WEEK:COMPACT,
    AlwaysOnWeek,             !- Name
    AllDays,                  !- DayType List 1
    AlwaysOnDay;              !- ScheduleDay Name 1

SCHEDULE:YEAR,
    OccupantGainYear,         !- Name
    FractionLimits,           !- Schedule Type Limits Name
    OccupantGainWeek,         !- ScheduleWeek Name 1
    1,                        !- Start Month 1
    1,                        !- Start Day 1
    12,                       !- End Month 1
    31;                       !- End Day 1

SCHEDULE:YEAR,
    LightingGainYear,         !- Name
    FractionLimits,           !- Schedule Type Limits Name
    LightingGainWeek,         !- ScheduleWeek Name 1
    1,                        !- Start Month 1
    1,                        !- Start Day 1
    12,                       !- End Month 1
    31;                       !- End Day 1

SCHEDULE:YEAR,
    EquipmentGainYear,        !- Name
    FractionLimits,           !- Schedule Type Limits Name
    EquipmentGainWeek,        !- ScheduleWeek Name 1
    1,                        !- Start Month 1
    1,                        !- Start Day 1
    12,                       !- End Month 1
    31;                       !- End Day 1

SCHEDULE:YEAR,
    OccupantActivityLevelYear,    !- Name
    ActivityLevelLimits,      !- Schedule Type Limits Name
    OccupantActivityLevelWeek,    !- ScheduleWeek Name 1
    1,                        !- Start Month 1
    1,                        !- Start Day 1
    12,                       !- End Month 1
    31;                       !- End Day 1

SCHEDULE:YEAR,
    HeatingSetpointYear,      !- Name
    TemperatureSetpointLimits,    !- Schedule Type Limits Name
    HeatingSetpointWeek,      !- ScheduleWeek Name 1
    1,                        !- Start Month 1
    1,                        !- Start Day 1
    12,                       !- End Month 1
    31;                       !- End Day 1

SCHEDULE:YEAR,
    CoolingSetpointYear,      !- Name
    TemperatureSetpointLimits,    !- Schedule Type Limits Name
    CoolingSetpointWeek,      !- ScheduleWeek Name 1
    1,                        !- Start Month 1
    1,                        !- Start Day 1
    12,                       !- End Month 1
    31;                       !- End Day 1

SCHEDULE:YEAR,
    VentilationYear,          !- Name
    OnOffLimits,              !- Schedule Type Limits Name
    VentilationWeek,          !- ScheduleWeek Name 1
    1,                        !- Start Month 1
    1,                        !- Start Day 1
    12,                       !- End Month 1
    31;                       !- End Day 1

SCHEDULE:YEAR,
    InfiltrationYear,         !- Name
    OnOffLimits,              !- Schedule Type Limits Name
    AlwaysOnWeek,             !- ScheduleWeek Name 1
    1,                        !- Start Month 1
    1,                        !- Start Day 1
    12,                       !- End Month 1
    31;                       !- End Day 1

SCHEDULE:YEAR,
    Always On,                !- Name
    OnOffLimits,              !- Schedule Type Limits Name
    AlwaysOnWeek,             !- ScheduleWeek Name 1
    1,                        !- Start Month 1
    1,                        !- Start Day 1
    12,                       !- End Month 1
    31;                       !- End Day 1

MATERIAL,
    INTERIOR WALL OUTSIDE MATERIAL,    !- Name
    MediumSmooth,             !- Roughness
    0.019,                    !- Thickness
    0.16,                     !- Conductivity
    800.0,                    !- Density
    1090.0,                   !- Specific Heat
    0.1,                      !- Thermal Absorptance
    0.4,                      !- Solar Absorptance
    0.4;                      !- Visible Absorptance

MATERIAL,
    INTERIOR WALL MIDDLE MATERIAL,    !- Name
    MediumRough,              !- Roughness
    0.019,                    !- Thickness
    0.16,                     !- Conductivity
    50.0,                     !- Density
    1030.0,                   !- Specific Heat
    0.1,                      !- Thermal Absorptance
    0.7,                      !- Solar Absorptance
    1.0;                      !- Visible Absorptance

MATERIAL,
    EXTERIOR WALL OUTSIDE MATERIAL,    !- Name
    MediumSmooth,             !- Roughness
    0.1,                      !- Thickness
    1.13,                     !- Conductivity
    1800.0,                   !- Density
    1000.0,                   !- Specific Heat
    0.1,                      !- Thermal Absorptance
    0.7,                      !- Solar Absorptance
    1.0;                      !- Visible Absorptance

MATERIAL,
    EXTERIOR WALL MIDDLE MATERIAL,    !- Name
    MediumRough,              !- Roughness
    1.0,                      !- Thickness
    0.036,                    !- Conductivity
    50.0,                     !- Density
    1030.0,                   !- Specific Heat
    0.1,                      !- Thermal Absorptance
    0.7,                      !- Solar Absorptance
    1.0;                      !- Visible Absorptance

MATERIAL,
    EXTERIOR WALL INSIDE MATERIAL,    !- Name
    MediumSmooth,             !- Roughness
    0.019,                    !- Thickness
    0.16,                     !- Conductivity
    800.0,                    !- Density
    1090.0,                   !- Specific Heat
    0.1,                      !- Thermal Absorptance
    0.4,                      !- Solar Absorptance
    0.4;                      !- Visible Absorptance

MATERIAL,
    INTERIOR FLOOR/CEILING CEILING MATERIAL,    !- Name
    MediumSmooth,             !- Roughness
    0.0191,                   !- Thickness
    0.06,                     !- Conductivity
    368.0,                    !- Density
    590.0,                    !- Specific Heat
    0.9,                      !- Thermal Absorptance
    0.3,                      !- Solar Absorptance
    0.3;                      !- Visible Absorptance

MATERIAL,
    INTERIOR FLOOR/CEILING FLOOR MATERIAL,    !- Name
    MediumRough,              !- Roughness
    0.1016,                   !- Thickness
    0.53,                     !- Conductivity
    1280.0,                   !- Density
    840.0,                    !- Specific Heat
    0.9,                      !- Thermal Absorptance
    0.5,                      !- Solar Absorptance
    0.5;                      !- Visible Absorptance

MATERIAL,
    EXTERIOR FLOOR OUTSIDE MATERIAL,    !- Name
    MediumRough,              !- Roughness
    0.0508,                   !- Thickness
    0.03,                     !- Conductivity
    43.0,                     !- Density
    1210.0,                   !- Specific Heat
    0.9,                      !- Thermal Absorptance
    0.7,                      !- Solar Absorptance
    0.7;                      !- Visible Absorptance

MATERIAL,
    EXTERIOR FLOOR INSIDE MATERIAL,    !- Name
    MediumRough,              !- Roughness
    0.2032,                   !- Thickness
    1.95,                     !- Conductivity
    2240.0,                   !- Density
    900.0,                    !- Specific Heat
    0.9,                      !- Thermal Absorptance
    0.7,                      !- Solar Absorptance
    0.7;                      !- Visible Absorptance

MATERIAL,
    EXTERIOR ROOF OUTSIDE MATERIAL,    !- Name
    MediumRough,              !- Roughness
    0.1,                      !- Thickness