!- Windows Line endings 

VERSION,
    8.8.0;                    !- Version Identifier

SIMULATIONCONTROL,
    No,                       !- Do Zone Sizing Calculation
    No,                       !- Do System Sizing Calculation
    No,                       !- Do Plant Sizing Calculation
    No,                       !- Run Simulation for Sizing Periods
    Yes,                      !- Run Simulation for Weather File Run Periods
    No,                       !- Do HVAC Sizing Simulation for Sizing Periods
    1;                        !- Maximum Number of HVAC Sizing Simulation Passes

BUILDING,
    IDF Name,                 !- Name
    0,                        !- North Axis
    City,                     !- Terrain
    0.04,                     !- Loads Convergence Tolerance Value
    0.4,                      !- Temperature Convergence Tolerance Value
    FullExteriorWithReflections,    !- Solar Distribution
    25,                       !- Maximum Number of Warmup Days
    6;                        !- Minimum Number of Warmup Days

SHADOWCALCULATION,
    AverageOverDaysInFrequency,    !- Calculation Method
    20,                       !- Calculation Frequency
    1000,                     !- Maximum Figures in Shadow Overlap Calculations
    SutherlandHodgman,        !- Polygon Clipping Algorithm
    SimpleSkyDiffuseModeling,    !- Sky Diffuse Modeling Algorithm
    InternalCalculation,      !- External Shading Calculation Method
    No;                       !- Output External Shading Calculation Results

TIMESTEP,
    6;                        !- Number of Timesteps per Hour

SITE:LOCATION,
    CARDIFF,                  !- Name
    51.48,                    !- Latitude
    3.18,                     !- Longitude
    0.0,                      !- Time Zone
    10.0;                     !- Elevation

RUNPERIOD,
    Custom Run,               !- Name
    1,                        !- Begin Month
    1,                        !- Begin Day of Month
    12,                       !- End Month
    31,                       !- End Day of Month
    Monday,                   !- Day of Week for Start Day
    Yes,                      !- Use Weather File Holidays and Special Days
    Yes,                      !- Use Weather File Daylight Saving Period
    No,                       !- Apply Weekend Holiday Rule
    Yes,                      !- Use Weather File Rain Indicators
    Yes,                      !- Use Weather File Snow Indicators
    1,                        !- Number of Times Runperiod to be Repeated
    Yes;                      !- Increment Day of Week on repeat

SCHEDULETYPELIMITS,
    FractionLimits,           !- Name
    0,                        !- Lower Limit Value
    1,                        !- Upper Limit Value
    Continuous,               !- Numeric Type
    Dimensionless;            !- Unit Type

SCHEDULETYPELIMITS,
    OnOffLimits,              !- Name
    0,                        !- Lower Limit Value
    1,                        !- Upper Limit Value
    Discrete,                 !- Numeric Type
    Dimensionless;            !- Unit Type

SCHEDULETYPELIMITS,
    TemperatureSetpointLimits,    !- Name
    0,                        !- Lower Limit Value
    100,                      !- Upper Limit Value
    Continuous,               !- Numeric Type
    Dimensionless;            !- Unit Type

SCHEDULETYPELIMITS,
    ActivityLevelLimits,      !- Name
    0,                        !- Lower Limit Value
    1000,                     !- Upper Limit Value
    Continuous,               !- Numeric Type
    Dimensionless;            !- Unit Type

SCHEDULE:DAY:HOURLY,
    AlwaysOnDay,              !- Name
    OnOffLimits,              !- Schedule Type Limits Name
    1,                        !- Hour 1
    1,                        !- Hour 2
    1,                        !- Hour 3
    1,                        !- Hour 4
    1,                        !- Hour 5
    1,                        !- Hour 6
    1,                        !- Hour 7
    1,                        !- Hour 8
    1,                        !- Hour 9
    1,                        !- Hour 10
    1,                        !- Hour 11
    1,                        !- Hour 12
    1,                        !- Hour 13
    1,                        !- Hour 14
    1,                        !- Hour 15
    1,                        !- Hour 16
    1,                        !- Hour 17
    1,                        !- Hour 18
    1,                        !- Hour 19
    1,                        !- Hour 20
    1,                        !- Hour 21
    1,                        !- Hour 22
    1,                        !- Hour 23
    1;                        !- Hour 24

SCHEDULE:DAY:HOURLY,
    AlwaysOffDay,             !- Name
    OnOffLimits,              !- Schedule Type Limits Name
    0,                        !- Hour 1
    0,                        !- Hour 2
    0,                        !- Hour 3
    0,                        !- Hour 4
    0,                        !- Hour 5
    0,                        !- Hour 6
    0,                        !- Hour 7
    0,                        !- Hour 8
    0,                        !- Hour 9
    0,                        !- Hour 10
    0,                        !- Hour 11
    0,                        !- Hour 12
    0,                        !- Hour 13
    0,                        !- Hour 14
    0,                        !- Hour 15
    0,                        !- Hour 16
    0,                        !- Hour 17
    0,                        !- Hour 18
    0,                        !- Hour 19
    0,                        !- Hour 20
    0,                        !- Hour 21
    0,                        !- Hour 22
    0,                        !- Hour 23
    0;                        !- Hour 24

SCHEDULE:DAY:HOURLY,
    CoolingSetpointDayWeekday,    !- Name
    TemperatureSetpointLimits,    !- Schedule Type Limits Name
    24,                       !- Hour 1
    24,                       !- Hour 2
    24,                       !- Hour 3
    24,                       !- Hour 4
    24,                       !- Hour 5
    100,                      !- Hour 6
    100,                      !- Hour 7
    100,                      !- Hour 8
    100,                      !- Hour 9
    100,                      !- Hour 10
    100,                      !- Hour 11
    100,                      !- Hour 12
    100,                      !- Hour 13
    100,                      !- Hour 14
    100,                      !- Hour 15
    100,                      !- Hour 16
    100,                      !- Hour 17
    100,                      !- Hour 18
    100,                      !- Hour 19
    24,                       !- Hour 20
    24,                       !- Hour 21
    24,                       !- Hour 22
    24,                       !- Hour 23
    24;                       !- Hour 24

SCHEDULE:DAY:HOURLY,
    CoolingSetpointDayWeekend,    !- Name
    TemperatureSetpointLimits,    !- Schedule Type Limits Name
    24,                       !- Hour 1
    24,                       !- Hour 2
    24,                       !- Hour 3
    24,                       !- Hour 4
    24,                       !- Hour 5
    24,                       !- Hour 6
    24,                       !- Hour 7
    24,                       !- Hour 8
    24,                       !- Hour 9
    24,                       !- Hour 10
    24,                       !- Hour 11
    24,                       !- Hour 12
    24,                       !- Hour 13
    24,                       !- Hour 14
    24,                       !- Hour 15
    24,                       !- Hour 16
    24,                       !- Hour 17
    24,                       !- Hour 18
    24,                       !- Hour 19
    24,                       !- Hour 20
    24,                       !- Hour 21
    24,                       !- Hour 22
    24,                       !- Hour 23
    24;                       !- Hour 24

SCHEDULE:DAY:HOURLY,
    HeatingSetpointDayWeekday,    !- Name
    TemperatureSetpointLimits,    !- Schedule Type Limits Name
    20,                       !- Hour 1
    20,                       !- Hour 2
    20,                       !- Hour 3
    20,                       !- Hour 4
    20,                       !- Hour 5
    16,                       !- Hour 6
    16,                       !- Hour 7
    16,                       !- Hour 8
    16,                       !- Hour 9
    16,                       !- Hour 10
    16,                       !- Hour 11
    16,                       !- Hour 12
    16,                       !- Hour 13
    16,                       !- Hour 14
    16,                       !- Hour 15
    16,                       !- Hour 16
    16,                       !- Hour 17
    16,                       !- Hour 18
    20,                       !- Hour 19
    20,                       !- Hour 20
    20,                       !- Hour 21
    20,                       !- Hour 22
    20,                       !- Hour 23
    20;                       !- Hour 24

SCHEDULE:DAY:HOURLY,
    HeatingSetpointDayWeekend,    !- Name
    TemperatureSetpointLimits,    !- Schedule Type Limits Name
    20,                       !- Hour 1
    20,                       !- Hour 2
    20,                       !- Hour 3
    20,                       !- Hour 4
    20,                       !- Hour 5
    20,                       !- Hour 6
    20,                       !- Hour 7
    20,                       !- Hour 8
    20,                       !- Hour 9
    20,                       !- Hour 10
    20,                       !- Hour 11
    20,                       !- Hour 12
    20,                       !- Hour 13
    20,                       !- Hour 14
    20,                       !- Hour 15
    20,                       !- Hour 16
    20,                       !- Hour 17
    20,                       !- Hour 18
    20,                       !- Hour 19
    20,                       !- Hour 20
    20,                       !- Hour 21
    20,                       !- Hour 22
    20,                       !- Hour 23
    20;                       !- Hour 24

SCHEDULE:DAY:HOURLY,
    OccupantGainDayWeekday,    !- Name
    FractionLimits,           !- Schedule Type Limits Name
    0,                        !- Hour 1
    0,                        !- Hour 2
    0,                        !- Hour 3
    0,                        !- Hour 4
    0,                        !- Hour 5
    0,                        !- Hour 6
    0,                        !- Hour 7
    0,                        !- Hour 8
    0,                        !- Hour 9
    0.75,                     !- Hour 10
    1,                        !- Hour 11
    1,                        !- Hour 12
    0.75,                     !- Hour 13
    0.75,                     !- Hour 14
    1,                        !- Hour 15
    1,                        !- Hour 16
    1,                        !- Hour 17
    0.75,                     !- Hour 18
    0.75,                     !- Hour 19
    0.75,                     !- Hour 20
    0.75,                     !- Hour 21
    0.5,                      !- Hour 22
    0.5,                      !- Hour 23
    0;                        !- Hour 24

SCHEDULE:DAY:HOURLY,
    OccupantGainDayWeekend,    !- Name
    FractionLimits,           !- Schedule Type Limits Name
    0,                        !- Hour 1
    0,                        !- Hour 2
    0,                        !- Hour 3
    0,                        !- Hour 4
    0,                        !- Hour 5
    0,                        !- Hour 6
    0,                        !- Hour 7
    0,                        !- Hour 8
    0,                        !- Hour 9
    0.75,                     !- Hour 10
    1,                        !- Hour 11
    1,                        !- Hour 12
    0.75,                     !- Hour 13
    0.75,                     !- Hour 14
    1,                        !- Hour 15
    1,                        !- Hour 16
    1,                        !- Hour 17
    0.75,                     !- Hour 18
    0.75,                     !- Hour 19
    0.75,                     !- Hour 20
    0.75,                     !- Hour 21
    0.5,                      !- Hour 22
    0.5,                      !- Hour 23
    0;                        !- Hour 24

SCHEDULE:DAY:HOURLY,
    LightingGainDayWeekday,    !- Name
    FractionLimits,           !- Schedule Type Limits Name
    0,                        !- Hour 1
    0,                        !- Hour 2
    0,                        !- Hour 3
    0,                        !- Hour 4
    0,                        !- Hour 5
    0,                        !- Hour 6
    0,                        !- Hour 7
    0,                        !- Hour 8
    0,                        !- Hour 9
    1,                        !- Hour 10
    1,                        !- Hour 11
    1,                        !- Hour 12
    1,                        !- Hour 13
    1,                        !- Hour 14
    1,                        !- Hour 15
    1,                        !- Hour 16
    1,                        !- Hour 17
    1,                        !- Hour 18
    1,                        !- Hour 19
    1,                        !- Hour 20
    1,                        !- Hour 21
    1,                        !- Hour 22
    1,                        !- Hour 23
    0;                        !- Hour 24

SCHEDULE:DAY:HOURLY,
    LightingGainDayWeekend,    !- Name
    FractionLimits,           !- Schedule Type Limits Name
    0,                        !- Hour 1
    0,                        !- Hour 2
    0,                        !- Hour 3
    0,                        !- Hour 4
    0,                        !- Hour 5
    0,                        !- Hour 6
    0,                        !- Hour 7
    0,                        !- Hour 8
    0,                        !- Hour 9
    1,                        !- Hour 10
    1,                        !- Hour 11
    1,                        !- Hour 12
    1,                        !- Hour 13
    1,                        !- Hour 14
    1,                        !- Hour 15
    1,                        !- Hour 16
    1,                        !- Hour 17
    1,                        !- Hour 18
    1,                        !- Hour 19
    1,                        !- Hour 20
    1,                        !- Hour 21
    1,                        !- Hour 22
    1,                        !- Hour 23
    0;                        !- Hour 24

SCHEDULE:DAY:HOURLY,
    EquipmentGainDayWeekday,    !- Name
    FractionLimits,           !- Schedule Type Limits Name
    0.054,                    !- Hour 1
    0.054,                    !- Hour 2
    0.054,                    !- Hour 3
    0.054,                    !- Hour 4
    0.054,                    !- Hour 5
    0.054,                    !- Hour 6
    0.054,                    !- Hour 7
    1,                        !- Hour 8
    1,                        !- Hour 9
    1,                        !- Hour 10
    1,                        !- Hour 11
    1,                        !- Hour 12
    1,                        !- Hour 13
    1,                        !- Hour 14
    1,                        !- Hour 15
    1,                        !- Hour 16
    1,                        !- Hour 17
    1,                        !- Hour 18
    1,                        !- Hour 19
    1,                        !- Hour 20
    0.054,                    !- Hour 21
    0.054,                    !- Hour 22
    0.054,                    !- Hour 23
    0.054;                    !- Hour 24

SCHEDULE:DAY:HOURLY,
    EquipmentGainDayWeekend,    !- Name
    FractionLimits,           !- Schedule Type Limits Name
    0.054,                    !- Hour 1
    0.054,                    !- Hour 2
    0.054,                    !- Hour 3
    0.054,                    !- Hour 4
    0.054,                    !- Hour 5
    0.054,                    !- Hour 6
    0.054,                    !- Hour 7
    1,                        !- Hour 8
    1,                        !- Hour 9
    1,                        !- Hour 10
    1,                        !- Hour 11
    1,                        !- Hour 12
    1,                        !- Hour 13
    1,                        !- Hour 14
    1,                        !- Hour 15
    1,                        !- Hour 16
    1,                        !- Hour 17
    1,                        !- Hour 18
    1,                        !- Hour 19
    1,                        !- Hour 20
    0.054,                    !- Hour 21
    0.054,                    !- Hour 22
    0.054,                    !- Hour 23
    0.054;                    !- Hour 24

SCHEDULE:DAY:HOURLY,
    VentilationGainDayWeekday,    !- Name
    FractionLimits,           !- Schedule Type Limits Name
    0,                        !- Hour 1
    0,                        !- Hour 2
    0,                        !- Hour 3
    0,                        !- Hour 4
    0,                        !- Hour 5
    0,                        !- Hour 6
    0,                        !- Hour 7
    1,                        !- Hour 8
    1,                        !- Hour 9
    1,                        !- Hour 10
    1,                        !- Hour 11
    1,                        !- Hour 12
    1,                        !- Hour 13
    1,                        !- Hour 14
    1,                        !- Hour 15
    1,                        !- Hour 16
    1,                        !- Hour 17
    1,                        !- Hour 18
    1,                        !- Hour 19
    0,                        !- Hour 20
    0,                        !- Hour 21
    0,                        !- Hour 22
    0,                        !- Hour 23
    0;                        !- Hour 24

SCHEDULE:DAY:HOURLY,
    VentilationGainDayWeekend,    !- Name
    FractionLimits,           !- Schedule Type Limits Name
    0,                        !- Hour 1
    0,                        !- Hour 2
    0,                        !- Hour 3
    0,                        !- Hour 4
    0,                        !- Hour 5
    0,                        !- Hour 6
    0,                        !- Hour 7
    0,                        !- Hour 8
    0,                        !- Hour 9
    0,                        !- Hour 10
    0,                        !- Hour 11
    0,                        !- Hour 12
    0,                        !- Hour 13
    0,                        !- Hour 14
    0,                        !- Hour 15
    0,                        !- Hour 16
    0,                        !- Hour 17
    0,                        !- Hour 18
    0,                        !- Hour 19
    0,                        !- Hour 20
    0,                        !- Hour 21
    0,                        !- Hour 22
    0,                        !- Hour 23
    0;                        !- Hour 24

SCHEDULE:DAY:HOURLY,
    OccupantActivityLevelDay,    !- Name
    ActivityLevelLimits,      !- Schedule Type Limits Name
    130,                      !- Hour 1
    130,                      !- Hour 2
    130,                      !- Hour 3
    130,                      !- Hour 4
    130,                      !- Hour 5
    130,                      !- Hour 6
    130,                      !- Hour 7
    130,                      !- Hour 8
    130,                      !- Hour 9
    130,                      !- Hour 10
    130,                      !- Hour 11
    130,                      !- Hour 12
    130,                      !- Hour 13
    130,                      !- Hour 14
    130,                      !- Hour 15
    130,                      !- Hour 16
    130,                      !- Hour 17
    130,                      !- Hour 18
    130,                      !- Hour 19
    130,                      !- Hour 20
    130,                      !- Hour 21
    130,                      !- Hour 22
    130,                      !- Hour 23
    130;                      !- Hour 24

SCHEDULE:WEEK:COMPACT,
    OccupantGainWeek,         !- Name
    WeekDays,                 !- DayType List 1
    OccupantGainDayWeekday,    !- ScheduleDay Name 1
    AllOtherDays,             !- DayType List 2
    OccupantGainDayWeekend;    !- ScheduleDay Name 2

SCHEDULE:WEEK:COMPACT,
    LightingGainWeek,         !- Name
    WeekDays,                 !- DayType List 1
    LightingGainDayWeekday,    !- ScheduleDay Name 1
    AllOtherDays,             !- DayType List 2
    LightingGainDayWeekend;    !- ScheduleDay Name 2

SCHEDULE:WEEK:COMPACT,
    EquipmentGainWeek,        !- Name
    WeekDays,                 !- DayType List 1
    EquipmentGainDayWeekday,    !- ScheduleDay Name 1
    AllOtherDays,             !- DayType List 2
    EquipmentGainDayWeekend;    !- ScheduleDay Name 2

SCHEDULE:WEEK:COMPACT,
    OccupantActivityLevelWeek,    !- Name
    AllDays,                  !- DayType List 1
    OccupantActivityLevelDay;    !- ScheduleDay Name 1

SCHEDULE:WEEK:COMPACT,
    HeatingSetpointWeek,      !- Name
    WeekDays,                 !- DayType List 1
    HeatingSetpointDayWeekday,    !- ScheduleDay Name 1
    AllOtherDays,             !- DayType List 2
    HeatingSetpointDayWeekend;    !- ScheduleDay Name 2

SCHEDULE:WEEK:COMPACT,
    CoolingSetpointWeek,      !- Name
    WeekDays,                 !- DayType List 1
    CoolingSetpointDayWeekday,    !- ScheduleDay Name 1
    AllOtherDays,             !- DayType List 2
    CoolingSetpointDayWeekend;    !- ScheduleDay Name 2

SCHEDULE:WEEK:COMPACT,
    VentilationWeek,          !- Name
    Weekdays,                 !- DayType List 1
    VentilationGainDayWeekday,    !- ScheduleDay Name 1
    AllOtherDays,             !- DayType List 2
    VentilationGainDayWeekend;    !- ScheduleDay Name 2

SCHEDULE:WEEK:COMPACT,
    AlwaysOnWeek,             !- Name
    AllDays,                  !- DayType List 1
    AlwaysOnDay;              !- ScheduleDay Name 1

SCHEDULE:YEAR,
    OccupantGainYear,         !- Name
    FractionLimits,           !- Schedule Type Limits Name
    OccupantGainWeek,         !- ScheduleWeek Name 1
    1,                        !- Start Month 1
    1,                        !- Start Day 1
    12,                       !- End Month 1
    31;                       !- End Day 1

SCHEDULE:YEAR,
    LightingGainYear,         !- Name
    FractionLimits,           !- Schedule Type Limits Name
    LightingGainWeek,         !- ScheduleWeek Name 1
    1,                        !- Start Month 1
    1,                        !- Start Day 1
    12,                       !- End Month 1
    31;                       !- End Day 1

SCHEDULE:YEAR,
    EquipmentGainYear,        !- Name
    FractionLimits,           !- Schedule Type Limits Name
    EquipmentGainWeek,        !- ScheduleWeek Name 1
    1,                        !- Start Month 1
    1,                        !- Start Day 1
    12,                       !- End Month 1
    31;                       !- End Day 1

SCHEDULE:YEAR,
    OccupantActivityLevelYear,    !- Name
    ActivityLevelLimits,      !- Schedule Type Limits Name
    OccupantActivityLevelWeek,    !- ScheduleWeek Name 1
    1,                        !- Start Month 1
    1,                        !- Start Day 1
    12,                       !- End Month 1
    31;                       !- End Day 1

SCHEDULE:YEAR,
    HeatingSetpointYear,      !- Name
    TemperatureSetpointLimits,    !- Schedule Type Limits Name
    HeatingSetpointWeek,      !- ScheduleWeek Name 1
    1,                        !- Start Month 1
    1,                        !- Start Day 1
    12,                       !- End Month 1
    31;                       !- End Day 1

SCHEDULE:YEAR,
    CoolingSetpointYear,      !- Name
    TemperatureSetpointLimits,    !- Schedule Type Limits Name
    CoolingSetpointWeek,      !- ScheduleWeek Name 1
    1,                        !- Start Month 1
    1,                        !- Start Day 1
    12,                       !- End Month 1
    31;                       !- End Day 1

SCHEDULE:YEAR,
    VentilationYear,          !- Name
    OnOffLimits,              !- Schedule Type Limits Name
    VentilationWeek,          !- ScheduleWeek Name 1
    1,                        !- Start Month 1
    1,                        !- Start Day 1
    12,                       !- End Month 1
    31;                       !- End Day 1

SCHEDULE:YEAR,
    InfiltrationYear,         !- Name
    OnOffLimits,              !- Schedule Type Limits Name
    AlwaysOnWeek,             !- ScheduleWeek Name 1
    1,                        !- Start Month 1
    1,                        !- Start Day 1
    12,                       !- End Month 1
    31;                       !- End Day 1

SCHEDULE:YEAR,
    Always On,                !- Name
    OnOffLimits,              !- Schedule Type Limits Name
    AlwaysOnWeek,             !- ScheduleWeek Name 1
    1,                        !- Start Month 1
    1,                        !- Start Day 1
    12,                       !- End Month 1
    31;                       !- End Day 1

MATERIAL,
    THERMAL MASS MATERIAL,    !- Name
    MediumRough,              !- Roughness
    1,                        !- Thickness
    2,                        !- Conductivity
    2000,                     !- Density
    900,                      !- Specific Heat
    0.9,                      !- Thermal Absorptance
    0.7,                      !- Solar Absorptance
    0.7;                      !- Visible Absorptance

MATERIAL:NOMASS,
    EXTERIOR WALL MATERIAL,    !- Name
    MediumRough,              !- Roughness
    3.33333333333,            !- Thermal Resistance
    0.9,                      !- Thermal Absorptance
    0.7,                      !- Solar Absorptance
    0.5;                      !- Visible Absorptance

MATERIAL:NOMASS,
    INTERIOR WALL MATERIAL,    !- Name
    MediumSmooth,             !- Roughness
    0.555555555556,           !- Thermal Resistance
    0.9,                      !- Thermal Absorptance
    0.7,                      !- Solar Absorptance
    0.5;                      !- Visible Absorptance

MATERIAL:NOMASS,
    INTERIOR FLOOR MATERIAL,    !- Name
    MediumSmooth,             !- Roughness
    0.919963201472,           !- Thermal Resistance
    0.9,                      !- Thermal Absorptance
    0.7,                      !- Solar Absorptance
    0.8;                      !- Visible Absorptance

MATERIAL:NOMASS,
    INTERIOR CEILING MATERIAL,    !- Name
    MediumSmooth,             !- Roughness
    0.919963201472,           !- Thermal Resistance
    0.9,                      !- Thermal Absorptance
    0.7,                      !- Solar Absorptance
    0.3;                      !- Visible Absorptance

MATERIAL:NOMASS,
    EXTERIOR ROOF MATERIAL,    !- Name
    MediumRough,              !- Roughness
    5.55555555556,            !- Thermal Resistance
    0.9,                      !- Thermal Absorptance
    0.7,                      !- Solar Absorptance
    0.3;                      !- Visible Absorptance

MATERIAL:NOMASS,
    AIR WALL MATERIAL,        !- Name
    MediumRough,              !- Roughness
    5.55555555556,            !- Thermal Resistance
    0.9,                      !- Thermal Absorptance
    0.7,                      !- Solar Absorptance
    0.3;                      !- Visible Absorptance

WINDOWMATERIAL:SIMPLEGLAZINGSYSTEM,
    EXTERIOR GLAZING MATERIAL,    !- Name
    1.6,                      !- UFactor
    0.3,                      !- Solar Heat Gain Coefficient
    0.65;                     !- Visible Transmittance

CONSTRUCTION,
    EXTERIOR WALL,            !- Name
    EXTERIOR WALL MATERIAL;    !- Outside Layer

CONSTRUCTION,
    INTERIOR WALL,            !- Name
    INTERIOR WALL MATERIAL;    !- Outside Layer

CONSTRUCTION,
    INTERIOR FLOOR,           !- Name
    INTERIOR FLOOR MATERIAL;    !- Outside Layer

CONSTRUCTION,
    INTERIOR CEILING,         !- Name
    INTERIOR CEILING MATERIAL;    !- Outside Layer

CONSTRUCTION,
    EXTERIOR ROOF,            !- Name
    EXTERIOR ROOF MATERIAL;    !- Outside Layer

CONSTRUCTION,
    AIR WALL,                 !- Name
    AIR WALL MATERIAL;        !- Outside Layer

CONSTRUCTION,
    EXTERIOR WINDOW,          !- Name
    EXTERIOR GLAZING MATERIAL;    !- Outside Layer

CONSTRUCTION,
    THERMAL MASS,             !- Name
    THERMAL MASS MATERIAL;    !- Outside Layer

GlobalGeometryRules,
    LowerLeftCorner,          !- Starting Vertex Position
    CounterClockWise,         !- Vertex Entry Direction
    Relative,                 !- Coordinate System
    Relative,                 !- Daylighting Reference Point Coordinate System
    Relative;                 !- Rectangular Surface Coordinate System

Zone,
    CM2_Adj_00,               !- Name
    0.0,                      !- Direction of Relative North
    0.0,                      !- X Origin
    0.0,                      !- Y Origin
    0.0,                      !- Z Origin
    1;                        !- Type

Zone,
    CM2_Adj_01,               !- Name
    0.0,                      !- Direction of Relative North
    0.0,                      !- X Origin
    0.0,                      !- Y Origin
    0.0,                      !- Z Origin
    1;                        !- Type

Zone,
    CM2_Adj_02,               !- Name
    0.0,                      !- Direction of Relative North
    0.0,                      !- X Origin
    0.0,                      !- Y Origin
    0.0,                      !- Z Origin
    1;                        !- Type

Zone,
    CM2_S_Outer,              !- Name
    0.0,                      !- Direction of Relative North
    0.0,                      !- X Origin
    0.0,                      !- Y Origin
    0.0,                      !- Z Origin
    1;                        !- Type

Zone,
    CM2_S_Inner,              !- Name
    0.0,                      !- Direction of Relative North